/*--------------------------------*- C++ -*----------------------------------*\
| =========                 |                                                 |
| \\      /  F ield         | OpenFOAM: The Open Source CFD Toolbox           |
|  \\    /   O peration     | Version:  2312                                  |
|   \\  /    A nd           | Website:  www.openfoam.com                      |
|    \\/     M anipulation  |                                                 |
\*---------------------------------------------------------------------------*/
FoamFile
{
    version     2.0;
    format      ascii;
    arch        "LSB;label=32;scalar=64";
    class       polyBoundaryMesh;
    location    "constant/polyMesh";
    object      boundary;
}
// * * * * * * * * * * * * * * * * * * * * * * * * * * * * * * * * * * * * * //

5
(
    inlet_gas
    {
        type            patch;
        nFaces          80;
        startFace       50903;
    }
    inlet_coolant
    {
        type            patch;
        nFaces          7;
        startFace       50983;
    }
    outlet
    {
        type            patch;
        nFaces          80;
        startFace       50990;
    }
    wall
    {
        type            wall;
        inGroups        1(wall);
        nFaces          657;
        startFace       51070;
    }
    frontAndBack
    {
        type            empty;
        inGroups        1(empty);
        nFaces          51322;
        startFace       51727;
    }
)

// ************************************************************************* //
